<NUMBER OF ZONES> 13
<NUMBER OF NODES> 13
<FIRST THRU NODE> A
<NUMBER OF LINKS> 48
<ORIGINAL HEADER>~ 	Init node 	Term node 	Capacity 	Length 	Free Flow Time 	B	Power	Speed limit 	Toll 	Type	;
<END OF METADATA>


~	init_node	term_node	capacity	length	free_flow_time	b	power	speed	toll	link_type	;
	A	B	1000	7	7	0.15	4	0	0	1	;
	A	C	1000	5	5	0.15	4	0	0	1	;
	A	D	1000	15	15	0.15	4	0	0	1	;
	B	D	1000	11	11	0.15	4	0	0	1	;
	B	E	1000	11	11	0.15	4	0	0	1	;
	C	D	1000	7	7	0.15	4	0	0	1	;
	C	F	1000	11	11	0.15	4	0	0	1	;
	C	G	1000	9	9	0.15	4	0	0	1	;
	D	E	1000	7	7	0.15	4	0	0	1	;
	D	G	1000	7	7	0.15	4	0	0	1	;
	D	H	1000	9	9	0.15	4	0	0	1	;
	E	H	1000	7	7	0.15	4	0	0	1	;
	F	G	1000	9	9	0.15	4	0	0	1	;
	F	I	1000	13	13	0.15	4	0	0	1	;
	G	H	1000	9	9	0.15	4	0	0	1	;
	G	J	1000	3	3	0.15	4	0	0	1	;
	G	K	1000	13	13	0.15	4	0	0	1	;
	H	K	1000	3	3	0.15	4	0	0	1	;
	I	J	1000	9	9	0.15	4	0	0	1	;
	I	L	1000	2	2	0.15	4	0	0	1	;
	J	K	1000	9	9	0.15	4	0	0	1	;
	J	L	1000	12	12	0.15	4	0	0	1	;
	J	M	1000	12	12	0.15	4	0	0	1	;
	K	M	1000	2	2	0.15	4	0	0	1	;
	B	A	1000	7	7	0.15	4	0	0	1	;
	C	A	1000	5	5	0.15	4	0	0	1	;
	D	A	1000	15	15	0.15	4	0	0	1	;
	D	B	1000	11	11	0.15	4	0	0	1	;
	E	B	1000	11	11	0.15	4	0	0	1	;
	D	C	1000	7	7	0.15	4	0	0	1	;
	F	C	1000	11	11	0.15	4	0	0	1	;
	G	C	1000	9	9	0.15	4	0	0	1	;
	E	D	1000	7	7	0.15	4	0	0	1	;
	G	D	1000	7	7	0.15	4	0	0	1	;
	H	D	1000	9	9	0.15	4	0	0	1	;
	H	E	1000	7	7	0.15	4	0	0	1	;
	G	F	1000	9	9	0.15	4	0	0	1	;
	I	F	1000	13	13	0.15	4	0	0	1	;
	H	G	1000	9	9	0.15	4	0	0	1	;
	J	G	1000	3	3	0.15	4	0	0	1	;
	K	G	1000	13	13	0.15	4	0	0	1	;
	K	H	1000	3	3	0.15	4	0	0	1	;
	J	I	1000	9	9	0.15	4	0	0	1	;
	L	I	1000	2	2	0.15	4	0	0	1	;
	K	J	1000	9	9	0.15	4	0	0	1	;
	L	J	1000	12	12	0.15	4	0	0	1	;
	M	J	1000	12	12	0.15	4	0	0	1	;
	M	K	1000	2	2	0.15	4	0	0	1	;